parallel/no_load/0pc/TNB_DUMA_VLN.Txt

SYMMETRICAL COMPONENT VOLTAGES BY BUS (for 3-phase buses)

Bus               Mag:   V1 (kV)    p.u.     V2 (kV)   %V2/V1    V0 (kV)    %V0/V1

ppu_duma_33kv        19.05          1  9.311E-009  4.887E-008 1.239E-009 6.505E-009
ppu_duma_11kv        6.351          1  3.289E-009  5.179E-008 1.31E-014 2.062E-013
rpplngi2             6.351          1  3.289E-009  5.179E-008 1.298E-014 2.044E-013
pdtjlnmasjid         6.351          1  3.289E-009  5.179E-008 1.26E-014 1.984E-013
bella                6.351          1  3.289E-009  5.179E-008 1.341E-014 2.112E-013
pstpdgn              6.351          1  3.289E-009  5.179E-008 1.378E-014 2.17E-013
pamdra               6.351          1  3.289E-009  5.179E-008 1.264E-014 1.99E-013
duma4                6.351          1  3.289E-009  5.179E-008 1.687E-014 2.656E-013
plsdra               6.351          1  3.289E-009  5.179E-008 2.773E-014 4.366E-013
ssu_uptwres_ir1      6.351          1  3.289E-009  5.179E-008 2.728E-014 4.296E-013
atria_1              6.351          1  3.289E-009  5.179E-008 1.289E-014 2.029E-013
hawker               6.351          1  3.289E-009  5.179E-008 1.343E-014 2.115E-013
prmte                6.351          1  3.289E-009  5.179E-008 1.437E-014 2.263E-013
prmta                6.351          1  3.289E-009  5.179E-008 1.478E-014 2.328E-013
pmontb               6.351          1  3.289E-009  5.179E-008 1.905E-014    3E-013
duma7                6.351          1  3.289E-009  5.179E-008 1.349E-014 2.125E-013
haus                 6.351          1  3.289E-009  5.179E-008 1.63E-014 2.566E-013
duma6                6.351          1  3.289E-009  5.179E-008 2.502E-014 3.939E-013
duma13               6.351          1  3.289E-009  5.179E-008 3.442E-014 5.42E-013
ssu_duma5_im2        6.351          1  3.289E-009  5.179E-008 3.396E-014 5.348E-013
plngi_b              6.351          1  3.289E-009  5.179E-008 1.37E-014 2.157E-013
plngi_d              6.351          1  3.289E-009  5.179E-008 1.299E-014 2.046E-013
pdtlitrak            6.351          1  3.289E-009  5.179E-008 1.284E-014 2.022E-013
duma12               6.351          1  3.289E-009  5.179E-008 1.316E-014 2.073E-013
tmngh4               6.351          1  3.289E-009  5.179E-008 1.064E-014 1.676E-013
ssu_tmegah3_ir1      6.351          1  3.289E-009  5.179E-008 9.664E-015 1.522E-013
tmngh2               6.351          1  3.289E-009  5.179E-008 6.994E-015 1.101E-013
sprk9                6.351          1  3.289E-009  5.179E-008 1.534E-014 2.416E-013
bomba                6.351          1  3.289E-009  5.179E-008 1.703E-014 2.681E-013
sprk8                6.351          1  3.289E-009  5.179E-008 1.691E-014 2.663E-013
ssu_uptwres_im2      6.351          1  3.289E-009  5.179E-008 5.003E-015 7.877E-014
maybank              6.351          1  3.289E-009  5.179E-008 4.748E-015 7.476E-014
duma8                6.351          1  3.289E-009  5.179E-008 2.882E-015 4.537E-014
ssu_dsarcntr_ir1     6.351          1  3.289E-009  5.179E-008 1.347E-014 2.122E-013
duma9                6.351          1  3.289E-009  5.179E-008 1.153E-014 1.816E-013
duma1                6.351          1  3.289E-009  5.179E-008 1.143E-014  1.8E-013
elite                6.351          1  3.289E-009  5.179E-008 1.187E-014 1.868E-013
duma10               6.351          1  3.289E-009  5.18E-008 4.057E-014 6.388E-013
balaipolis           6.351          1  3.289E-009  5.18E-008 4.15E-014 6.534E-013
ppu_duma_vcb1            0          0          0          0         0         0
